Loading python/miniconda3-py38
  Loading requirement: compilers/gcc820
/*---------------------------------------------------------------------------*\
| =========                 |                                                 |
| \\      /  F ield         | OpenFOAM: The Open Source CFD Toolbox           |
|  \\    /   O peration     | Version:  2306                                  |
|   \\  /    A nd           | Website:  www.openfoam.com                      |
|    \\/     M anipulation  |                                                 |
\*---------------------------------------------------------------------------*/
Build  : _fbf00d6b-20230626 OPENFOAM=2306 version=2306
Arch   : "LSB;label=32;scalar=64"
Exec   : blockMesh -case /home/nkhadi001/OpenFOAM/nkhadi001-2306/foamMooring/tutorial/mooredrigidBodyHull/overset-1
Date   : Aug 13 2024
Time   : 00:01:05
Host   : srvcnthpc113.uct.ac.za
PID    : 53244
I/O    : uncollated
Case   : /home/nkhadi001/OpenFOAM/nkhadi001-2306/foamMooring/tutorial/mooredrigidBodyHull/overset-1
nProcs : 1
trapFpe: Floating point exception trapping enabled (FOAM_SIGFPE).
fileModificationChecking : Monitoring run-time modified files using timeStampMaster (fileModificationSkew 5, maxFileModificationPolls 20)
allowSystemOperations : Allowing user-supplied system call operations

// * * * * * * * * * * * * * * * * * * * * * * * * * * * * * * * * * * * * * //
Create time

Creating block mesh from "system/blockMeshDict"
Creating block edges
No non-planar block faces defined
Creating topology blocks

Creating topology patches - from boundary section

Creating block mesh topology

Check topology

	Basic statistics
		Number of internal faces : 0
		Number of boundary faces : 6
		Number of defined boundary faces : 6
		Number of undefined boundary faces : 0
	Checking patch -> block consistency

Creating block offsets
Creating merge list (topological search)...
Deleting polyMesh directory "constant/polyMesh"

Creating polyMesh from blockMesh
Creating patches
Creating cells
Creating points with scale (1 1 1)
    Block 0 cell size :
        i : 0.02972973 .. 0.02972973
        j : 0.02875 .. 0.02875
        k : 0.028378378 .. 0.028378378

No patch pairs to merge

Writing polyMesh with 0 cellZones
----------------
Mesh Information
----------------
  boundingBox: (-0.5 -0.23 -0.65) (0.6 0.23 0.4)
  nPoints: 24548
  nCells: 21904
  nFaces: 68265
  nInternalFaces: 63159
----------------
Patches
----------------
  patch 0 (start: 63159 size: 5106) name: overset-1

End

/*---------------------------------------------------------------------------*\
| =========                 |                                                 |
| \\      /  F ield         | OpenFOAM: The Open Source CFD Toolbox           |
|  \\    /   O peration     | Version:  2306                                  |
|   \\  /    A nd           | Website:  www.openfoam.com                      |
|    \\/     M anipulation  |                                                 |
\*---------------------------------------------------------------------------*/
Build  : _fbf00d6b-20230626 OPENFOAM=2306 version=2306
Arch   : "LSB;label=32;scalar=64"
Exec   : surfaceFeatureExtract -case /home/nkhadi001/OpenFOAM/nkhadi001-2306/foamMooring/tutorial/mooredrigidBodyHull/overset-1
Date   : Aug 13 2024
Time   : 00:01:08
Host   : srvcnthpc113.uct.ac.za
PID    : 53668
I/O    : uncollated
Case   : /home/nkhadi001/OpenFOAM/nkhadi001-2306/foamMooring/tutorial/mooredrigidBodyHull/overset-1
nProcs : 1
trapFpe: Floating point exception trapping enabled (FOAM_SIGFPE).
fileModificationChecking : Monitoring run-time modified files using timeStampMaster (fileModificationSkew 5, maxFileModificationPolls 20)
allowSystemOperations : Allowing user-supplied system call operations

// * * * * * * * * * * * * * * * * * * * * * * * * * * * * * * * * * * * * * //
Create time


Note: Feature line extraction only valid on closed manifold surfaces

Reading surfaceFeatureExtractDict

Surfaces     : vessel.stl
Output       : vessel
Load options : offset
Write options: writeObj=off writeVTK=off

Statistics:
Triangles    : 670 in 1 region(s)
Vertices     : 337
Bounding Box : (-0.41 -0.12 -0.053819999) (0.528696 0.13 0.34)

Constructing feature set from included angle 150
Selecting edges based purely on geometric tests: no

Initial Feature set:
    points : 30
    edges  : 205
    of which
        region edges   : 1
        external edges : 133
        internal edges : 71

Final Feature set:
    points : 190
    of which
        convex             : 16
        concave            : 3
        mixed              : 11
        non-feature        : 160
    edges  : 205
    of which
        external edges     : 133
        internal edges     : 71
        flat edges         : 0
        open edges         : 0
        multiply connected : 1

Writing extendedFeatureEdgeMesh to "/home/nkhadi001/OpenFOAM/nkhadi001-2306/foamMooring/tutorial/mooredrigidBodyHull/overset-1/constant/extendedFeatureEdgeMesh/vessel.extendedFeatureEdgeMesh"

Writing featureEdgeMesh to "/home/nkhadi001/OpenFOAM/nkhadi001-2306/foamMooring/tutorial/mooredrigidBodyHull/overset-1/constant/triSurface/vessel.eMesh"
ExecutionTime = 0 s  ClockTime = 0 s

End

/*---------------------------------------------------------------------------*\
| =========                 |                                                 |
| \\      /  F ield         | OpenFOAM: The Open Source CFD Toolbox           |
|  \\    /   O peration     | Version:  2306                                  |
|   \\  /    A nd           | Website:  www.openfoam.com                      |
|    \\/     M anipulation  |                                                 |
\*---------------------------------------------------------------------------*/
Build  : _fbf00d6b-20230626 OPENFOAM=2306 version=2306
Arch   : "LSB;label=32;scalar=64"
Exec   : snappyHexMesh -overwrite -case /home/nkhadi001/OpenFOAM/nkhadi001-2306/foamMooring/tutorial/mooredrigidBodyHull/overset-1
Date   : Aug 13 2024
Time   : 00:01:11
Host   : srvcnthpc113.uct.ac.za
PID    : 54083
I/O    : uncollated
Case   : /home/nkhadi001/OpenFOAM/nkhadi001-2306/foamMooring/tutorial/mooredrigidBodyHull/overset-1
nProcs : 1
trapFpe: Floating point exception trapping enabled (FOAM_SIGFPE).
fileModificationChecking : Monitoring run-time modified files using timeStampMaster (fileModificationSkew 5, maxFileModificationPolls 20)
allowSystemOperations : Allowing user-supplied system call operations

// * * * * * * * * * * * * * * * * * * * * * * * * * * * * * * * * * * * * * //
Create time

Create mesh for time = 0

Read mesh in = 0.09 s

Overall mesh bounding box  : (-0.5 -0.23 -0.65) (0.6 0.23 0.4)
Relative tolerance         : 1e-06
Absolute matching distance : 1.5887416e-06

Reading refinement surfaces.
Read refinement surfaces in = 0.02 s

Reading refinement shells.
Refinement level 2 for all cells inside BoxRefinement_1
Read refinement shells in = 0 s

Setting refinement level of surface to be consistent with shells.
For geometry vessel.stl detected 0 uncached triangles out of 670
Checked shell refinement in = 0 s

Reading features.
Read edgeMesh vessel.eMesh
    points      : 190
    edges       : 205
    boundingBox : (-0.40960801 -0.12 0.059999999) (0.528696 0.13 0.34)

Refinement level according to distance to "vessel.eMesh" (190 points, 205 edges).
    level 0 for all cells within 0 metre.
Read features in = 0 s


Determining initial surface intersections
-----------------------------------------

Edge intersection testing:
    Number of edges             : 68265
    Number of edges to retest   : 0
    Number of intersected edges : 0
Edge intersection testing:
    Number of edges             : 68265
    Number of edges to retest   : 68265
    Number of intersected edges : 1440
Calculated surface intersections in = 0.07 s

Initial mesh : cells:21904  faces:68265  points:24548
Cells per refinement level:
    0	21904
Setting refinement level of surface to be consistent with curvature.
Checked curvature refinement in = 0 s


Adding patches for surface regions
----------------------------------

Patch Type                Region                        
----- ----                ------                        
vessel:

1     wall                vessel                        

Added patches in = 0 s

Edge intersection testing:
    Number of edges             : 68265
    Number of edges to retest   : 0
    Number of intersected edges : 1440
Decomposition method none [1]

Refinement phase
----------------

Found point (-0.45 0.1 0.1) in cell 15800 on processor 0

Feature refinement iteration 0
------------------------------

Marked for refinement due to explicit features             : 0 cells.
Determined cells to refine in = 0.16 s
Selected for feature refinement : 0 cells (out of 21904)
Stopping refining since too few cells selected.


Surface refinement iteration 0
------------------------------

Marked for refinement due to surface intersection          : 2217 cells.
Determined cells to refine in = 0 s
Selected for refinement : 2217 cells (out of 21904)
Edge intersection testing:
    Number of edges             : 118548
    Number of edges to retest   : 63511
    Number of intersected edges : 5600
Refined mesh in = 0.1 s
After refinement surface refinement iteration 0 : cells:37423  faces:118548  points:43799
Cells per refinement level:
    0	19687
    1	17736

Surface refinement iteration 1
------------------------------

Marked for refinement due to surface intersection          : 9445 cells.
Determined cells to refine in = 0 s
Selected for refinement : 9777 cells (out of 37423)
Edge intersection testing:
    Number of edges             : 338439
    Number of edges to retest   : 277401
    Number of intersected edges : 22458
Refined mesh in = 0.38 s
After refinement surface refinement iteration 1 : cells:105862  faces:338439  points:126805
Cells per refinement level:
    0	19320
    1	11262
    2	75280

Surface refinement iteration 2
------------------------------

Marked for refinement due to surface intersection          : 253 cells.
Determined cells to refine in = 0.01 s
Selected for refinement : 284 cells (out of 105862)
Edge intersection testing:
    Number of edges             : 344373
    Number of edges to retest   : 20060
    Number of intersected edges : 22452
Refined mesh in = 0.25 s
After refinement surface refinement iteration 2 : cells:107850  faces:344373  points:128767
Cells per refinement level:
    0	19289
    1	11257
    2	77304

Surface refinement iteration 3
------------------------------

Marked for refinement due to surface intersection          : 2 cells.
Determined cells to refine in = 0.01 s
Selected for refinement : 3 cells (out of 107850)
Edge intersection testing:
    Number of edges             : 344436
    Number of edges to retest   : 278
    Number of intersected edges : 22452
Refined mesh in = 0.27 s
After refinement surface refinement iteration 3 : cells:107871  faces:344436  points:128788
Cells per refinement level:
    0	19288
    1	11263
    2	77320

Surface refinement iteration 4
------------------------------

Marked for refinement due to surface intersection          : 0 cells.
Determined cells to refine in = 0.01 s
Selected for refinement : 0 cells (out of 107871)
Stopping refining since too few cells selected.


Removing mesh beyond surface intersections
------------------------------------------

Setting cellZones according to locationsInMesh:
Location : (-0.45 0.1 0.1)
    cellZone : none

For cellZone none found point (-0.45 0.1 0.1) in global region 0 out of 3 regions.
--> FOAM Warning : 
    From void Foam::meshRefinement::nearestFace(const labelUList&, const Foam::bitSet&, Foam::autoPtr<Foam::mapDistribute>&, Foam::labelList&, Foam::label) const
    in file meshRefinement/meshRefinement.C at line 515
    Did not visit some faces, e.g. face 0 at (-0.47027027 -0.215625 -0.63581081)
Keeping all cells containing inside points
Selected for keeping : 87755 cells.
Edge intersection testing:
    Number of edges             : 286975
    Number of edges to retest   : 18377
    Number of intersected edges : 22452

Shell refinement iteration 0
----------------------------

Marked for refinement due to distance to explicit features : 0 cells.
Marked for refinement due to refinement shells             : 13459 cells.
Determined cells to refine in = 0.31 s
Selected for internal refinement : 13770 cells (out of 87755)
Edge intersection testing:
    Number of edges             : 579388
    Number of edges to retest   : 429286
    Number of intersected edges : 22452
Refined mesh in = 0.57 s
After refinement shell refinement iteration 0 : cells:184145  faces:579388  points:211113
Cells per refinement level:
    0	12787
    1	48648
    2	122710

Shell refinement iteration 1
----------------------------

Marked for refinement due to distance to explicit features : 0 cells.
Marked for refinement due to refinement shells             : 47404 cells.
Determined cells to refine in = 0.06 s
Selected for internal refinement : 48869 cells (out of 184145)
Edge intersection testing:
    Number of edges             : 1612183
    Number of edges to retest   : 1292196
    Number of intersected edges : 22452
Refined mesh in = 1.6 s
After refinement shell refinement iteration 1 : cells:526228  faces:1612183  points:559749
Cells per refinement level:
    0	11322
    1	12964
    2	501942

Shell refinement iteration 2
----------------------------

Marked for refinement due to distance to explicit features : 0 cells.
Marked for refinement due to refinement shells             : 828 cells.
Determined cells to refine in = 0.15 s
Selected for internal refinement : 902 cells (out of 526228)
Edge intersection testing:
    Number of edges             : 1631179
    Number of edges to retest   : 42802
    Number of intersected edges : 22452
Refined mesh in = 1.21 s
After refinement shell refinement iteration 2 : cells:532542  faces:1631179  points:566117
Cells per refinement level:
    0	11248
    1	12728
    2	508566

Shell refinement iteration 3
----------------------------

Marked for refinement due to distance to explicit features : 0 cells.
Marked for refinement due to refinement shells             : 0 cells.
Determined cells to refine in = 0.15 s
Selected for internal refinement : 0 cells (out of 532542)
Stopping refining since too few cells selected.


Dangling coarse cells refinement iteration 0
--------------------------------------------

Determined cells to refine in = 0.02 s
Selected for refinement : 0 cells (out of 532542)
Stopping refining since too few cells selected.


Dangling coarse cells refinement iteration 0
--------------------------------------------

Determined cells to refine in = 0.02 s
Selected for refinement : 0 cells (out of 532542)
Stopping refining since too few cells selected.


Refinement transition refinement iteration 0
--------------------------------------------

Determined cells to refine in = 0.01 s
Selected for refinement : 0 cells (out of 532542)
Stopping refining since too few cells selected.


Splitting mesh at surface intersections
---------------------------------------

Introducing baffles for 22452 faces that are intersected by the surface.

Setting cellZones according to locationsInMesh:
Location : (-0.45 0.1 0.1)
    cellZone : none

For cellZone none found point (-0.45 0.1 0.1) in global region 0 out of 3 regions.
Edge intersection testing:
    Number of edges             : 1653631
    Number of edges to retest   : 164432
    Number of intersected edges : 44904
Created baffles in = 1.2 s


After introducing baffles : cells:532542  faces:1653631  points:566117
Cells per refinement level:
    0	11248
    1	12728
    2	508566

Introducing baffles to block off problem cells
----------------------------------------------

markFacesOnProblemCells : marked 38864 additional internal faces to be converted into baffles.
Analyzed problem cells in = 0.8 s


Introducing baffles to delete problem cells.

Edge intersection testing:
    Number of edges             : 1692495
    Number of edges to retest   : 118136
    Number of intersected edges : 44904
Created baffles in = 0.9 s


After introducing baffles : cells:532542  faces:1692495  points:566117
Cells per refinement level:
    0	11248
    1	12728
    2	508566
Setting cellZones according to locationsInMesh:
Location : (-0.45 0.1 0.1)
    cellZone : none

For cellZone none found point (-0.45 0.1 0.1) in global region 0 out of 19304 regions.
Edge intersection testing:
    Number of edges             : 1692495
    Number of edges to retest   : 200500
    Number of intersected edges : 44904

Remove unreachable sections of mesh
-----------------------------------

Keeping all cells containing points 1((-0.45 0.1 0.1))
Selected for keeping : 511203 cells.
Edge intersection testing:
    Number of edges             : 1568944
    Number of edges to retest   : 0
    Number of intersected edges : 22427
Split mesh in = 2.29 s


After subsetting : cells:511203  faces:1568944  points:546536
Cells per refinement level:
    0	11248
    1	12728
    2	487227

Introducing zones for interfaces
--------------------------------

Setting cellZones according to locationsInMesh:
Location : (-0.45 0.1 0.1)
    cellZone : none

For cellZone none found point (-0.45 0.1 0.1) in global region 0 out of 1 regions.
Setting faceZones according to neighbouring cellZones:

Edge intersection testing:
    Number of edges             : 1568944
    Number of edges to retest   : 0
    Number of intersected edges : 22427

Handling cells with snap problems
---------------------------------

Introducing baffles for 22427 faces that are intersected by the surface.

Setting cellZones according to locationsInMesh:
Location : (-0.45 0.1 0.1)
    cellZone : none

For cellZone none found point (-0.45 0.1 0.1) in global region 0 out of 1 regions.
Edge intersection testing:
    Number of edges             : 1568944
    Number of edges to retest   : 84849
    Number of intersected edges : 22427
Created baffles in = 2.08 s


After introducing baffles : cells:511203  faces:1568944  points:546536
Cells per refinement level:
    0	11248
    1	12728
    2	487227

Introducing baffles to block off problem cells
----------------------------------------------

markFacesOnProblemCells : marked 0 additional internal faces to be converted into baffles.
Analyzed problem cells in = 0.76 s


Introducing baffles to delete problem cells.

Created baffles in = 0.13 s


After introducing baffles : cells:511203  faces:1568944  points:546536
Cells per refinement level:
    0	11248
    1	12728
    2	487227
Setting cellZones according to locationsInMesh:
Location : (-0.45 0.1 0.1)
    cellZone : none

For cellZone none found point (-0.45 0.1 0.1) in global region 0 out of 1 regions.
Edge intersection testing:
    Number of edges             : 1568944
    Number of edges to retest   : 84849
    Number of intersected edges : 22427

Remove unreachable sections of mesh
-----------------------------------

Split mesh in = 1.33 s


After subsetting : cells:511203  faces:1568944  points:546536
Cells per refinement level:
    0	11248
    1	12728
    2	487227

Merge free-standing baffles
---------------------------

freeStandingBaffles : detected 0 free-standing baffles out of 0

Detected free-standing baffles : 0
Merged free-standing baffles in = 0.18 s


dupNonManifoldPoints : Found : 75 non-manifold points (out of 546536)
Edge intersection testing:
    Number of edges             : 1568944
    Number of edges to retest   : 0
    Number of intersected edges : 22427
Detected unsplittable baffles : 0

Merge refined boundary faces
----------------------------

Merging 0 sets of faces.

No faces merged ...

Merging all points on surface that
- are used by only two boundary faces and
- make an angle with a cosine of more than 0.70710678.

No straight edges simplified and no points removed ...
Refined mesh : cells:511203  faces:1568944  points:546611
Cells per refinement level:
    0	11248
    1	12728
    2	487227
Writing mesh to time constant
Wrote mesh in = 2.71 s.
Mesh refined in = 17.67 s.

Morphing phase
--------------

Duplicating 0 points on faceZones of type boundary
Snapping to features in 15 iterations ...
Constructing mesh displacer ...
Using mesh parameters 
{
    maxNonOrtho     65;
    maxBoundarySkewness 20;
    maxInternalSkewness 4;
    maxConcave      80;
    minVol          1e-13;
    minTetQuality   1e-09;
    minArea         -1;
    minTwist        0.05;
    minDeterminant  0.001;
    minFaceWeight   0.05;
    minVolRatio     0.01;
    minTriangleTwist -1;
    nSmoothScale    4;
    errorReduction  0.75;
    relaxed
    {
        maxNonOrtho     75;
    }
}


Checking initial mesh ...
Checking faces in error :
    non-orthogonality > 65  degrees                        : 0
    faces with face pyramid volume < 1e-13                 : 0
    faces with face-decomposition tet quality < 1e-09      : 0
    faces with concavity > 80  degrees                     : 0
    faces with skewness > 4   (internal) or 20  (boundary) : 0
    faces with interpolation weights (0..1)  < 0.05        : 0
    faces with volume ratio of neighbour cells < 0.01      : 0
    faces with face twist < 0.05                           : 0
    faces on cells with determinant < 0.001                : 0
Detected 0 illegal faces (concave, zero area or negative cell pyramid volume)
Checked initial mesh in = 1.17 s


Smoothing patch points ...
Smoothing iteration 0
Found 150 non-manifold point(s).

Scaling iteration 0
Moving mesh using displacement scaling : min:1  max:1
Checking faces in error :
    non-orthogonality > 65  degrees                        : 0
    faces with face pyramid volume < 1e-13                 : 0
    faces with face-decomposition tet quality < 1e-09      : 0
    faces with concavity > 80  degrees                     : 0
    faces with skewness > 4   (internal) or 20  (boundary) : 0
    faces with interpolation weights (0..1)  < 0.05        : 0
    faces with volume ratio of neighbour cells < 0.01      : 0
    faces with face twist < 0.05                           : 0
    faces on cells with determinant < 0.001                : 0
Successfully moved mesh

Smoothing iteration 1
Found 0 non-manifold point(s).

Scaling iteration 0
Moving mesh using displacement scaling : min:1  max:1
Checking faces in error :
    non-orthogonality > 65  degrees                        : 0
    faces with face pyramid volume < 1e-13                 : 0
    faces with face-decomposition tet quality < 1e-09      : 0
    faces with concavity > 80  degrees                     : 0
    faces with skewness > 4   (internal) or 20  (boundary) : 0
    faces with interpolation weights (0..1)  < 0.05        : 0
    faces with volume ratio of neighbour cells < 0.01      : 0
    faces with face twist < 0.05                           : 0
    faces on cells with determinant < 0.001                : 0
Successfully moved mesh

Smoothing iteration 2
Found 0 non-manifold point(s).

Scaling iteration 0
Moving mesh using displacement scaling : min:1  max:1
Checking faces in error :
    non-orthogonality > 65  degrees                        : 0
    faces with face pyramid volume < 1e-13                 : 0
    faces with face-decomposition tet quality < 1e-09      : 0
    faces with concavity > 80  degrees                     : 0
    faces with skewness > 4   (internal) or 20  (boundary) : 0
    faces with interpolation weights (0..1)  < 0.05        : 0
    faces with volume ratio of neighbour cells < 0.01      : 0
    faces with face twist < 0.05                           : 0
    faces on cells with determinant < 0.001                : 0
Successfully moved mesh

Patch points smoothed in = 4.91 s



Morph iteration 0
-----------------
Calculating patchDisplacement as distance to nearest surface point ...
    non-zone points : attract to nearest of all non-zone surfaces
    zone points     : attract to zone surface only

Wanted displacement : average:0.0015129702 min:1.5360518e-06 max:0.0068061297
Calculated surface displacement in = 0.02 s


Detecting near surfaces ...
Overriding nearest with intersection of close gaps at 0 out of 22438 points.
Overriding displacement on features :
   implicit features    : false
   explicit features    : true
   multi-patch features : false

Detected 0 baffle edges out of 44872 edges.
Baffle points     : 0 of which attracted to :
    feature point : 0
    feature edge  : 0
    rest          : 0

Initially selected 2193 mesh points out of 22438 for reverse attraction.
Selected 5696 mesh points out of 22438 for reverse attraction.
Stringing feature edges : changed 50 points
Stringing feature edges : changed 3 points
Stringing feature edges : changed 2 points
Stringing feature edges : changed 3 points
Stringing feature edges : changed 3 points
Stringing feature edges : changed 2 points
Stringing feature edges : changed 3 points
Stringing feature edges : changed 2 points
Stringing feature edges : changed 1 points
Stringing feature edges : changed 1 points
Stringing feature edges : changed 2 points
Stringing feature edges : changed 1 points
Stringing feature edges : changed 1 points
Stringing feature edges : changed 2 points
Stringing feature edges : changed 1 points
Stringing feature edges : changed 1 points
Stringing feature edges : changed 2 points
Stringing feature edges : changed 1 points
Stringing feature edges : changed 1 points
Stringing feature edges : changed 1 points
Stringing feature edges : changed 0 points
Attraction:
    linear   : max:(0 0.006181493 -0.0028482531) avg:(0.00025236604 0.00029488435 0.00031631671)
    feature  : max:(0.0084499416 -0.0021875001 -0.0058306747) avg:(4.2319274e-05 2.8494834e-05 0.0001152464)
Feature analysis : total master points :22438 of which attracted to :
    feature point   : 48
    feature edge    : 1241
    nearest surface : 0
    rest            : 21149

--> FOAM Warning : Displacement (4.6384242e-06 -5.3240926e-06 1.4942497e-05) at mesh point 17438 coord (0.51091939 -1.2431281e-05 0.14281794) points through the surrounding patch faces
Smoothing displacement ...
Iteration 0
Iteration 10
Iteration 20
Displacement smoothed in = 1.01 s


Moving mesh ...

Iteration 0
Moving mesh using displacement scaling : min:1  max:1
Checking faces in error :
    non-orthogonality > 65  degrees                        : 0
    faces with face pyramid volume < 1e-13                 : 0
    faces with face-decomposition tet quality < 1e-09      : 0
    faces with concavity > 80  degrees                     : 0
    faces with skewness > 4   (internal) or 20  (boundary) : 0
    faces with interpolation weights (0..1)  < 0.05        : 0
    faces with volume ratio of neighbour cells < 0.01      : 0
    faces with face twist < 0.05                           : 0
    faces on cells with determinant < 0.001                : 0
Successfully moved mesh
Moved mesh in = 1.55 s



Morph iteration 1
-----------------
Calculating patchDisplacement as distance to nearest surface point ...
    non-zone points : attract to nearest of all non-zone surfaces
    zone points     : attract to zone surface only

Wanted displacement : average:0.0014329831 min:1.5887496e-07 max:0.0063633666
Calculated surface displacement in = 0.02 s


Detecting near surfaces ...
Overriding nearest with intersection of close gaps at 0 out of 22438 points.
Overriding displacement on features :
   implicit features    : false
   explicit features    : true
   multi-patch features : false

Detected 0 baffle edges out of 44872 edges.
Baffle points     : 0 of which attracted to :
    feature point : 0
    feature edge  : 0
    rest          : 0

Initially selected 2195 mesh points out of 22438 for reverse attraction.
Selected 5698 mesh points out of 22438 for reverse attraction.
Stringing feature edges : changed 51 points
Stringing feature edges : changed 4 points
Stringing feature edges : changed 2 points
Stringing feature edges : changed 3 points
Stringing feature edges : changed 3 points
Stringing feature edges : changed 2 points
Stringing feature edges : changed 3 points
Stringing feature edges : changed 2 points
Stringing feature edges : changed 1 points
Stringing feature edges : changed 1 points
Stringing feature edges : changed 2 points
Stringing feature edges : changed 1 points
Stringing feature edges : changed 1 points
Stringing feature edges : changed 2 points
Stringing feature edges : changed 1 points
Stringing feature edges : changed 1 points
Stringing feature edges : changed 2 points
Stringing feature edges : changed 1 points
Stringing feature edges : changed 1 points
Stringing feature edges : changed 1 points
Stringing feature edges : changed 0 points
Attraction:
    linear   : max:(0 0.0057793648 -0.002662964) avg:(0.00023705319 0.00027596902 0.00029822466)
    feature  : max:(0.0082529288 -0.002360807 -0.0058047606) avg:(3.9857748e-05 2.767098e-05 0.00011456712)
Feature analysis : total master points :22438 of which attracted to :
    feature point   : 50
    feature edge    : 1241
    nearest surface : 0
    rest            : 21147

--> FOAM Warning : Displacement (8.6583881e-06 -9.938302e-06 5.9504344e-05) at mesh point 17438 coord (0.51092403 -1.7755374e-05 0.14283288) points through the surrounding patch faces
Smoothing displacement ...
Iteration 0
Iteration 10
Iteration 20
Displacement smoothed in = 1 s


Moving mesh ...

Iteration 0
Moving mesh using displacement scaling : min:1  max:1
Checking faces in error :
    non-orthogonality > 65  degrees                        : 0
    faces with face pyramid volume < 1e-13                 : 0
    faces with face-decomposition tet quality < 1e-09      : 0
    faces with concavity > 80  degrees                     : 0
    faces with skewness > 4   (internal) or 20  (boundary) : 0
    faces with interpolation weights (0..1)  < 0.05        : 0
    faces with volume ratio of neighbour cells < 0.01      : 0
    faces with face twist < 0.05                           : 0
    faces on cells with determinant < 0.001                : 0
Successfully moved mesh
Moved mesh in = 1.54 s



Morph iteration 2
-----------------
Calculating patchDisplacement as distance to nearest surface point ...
    non-zone points : attract to nearest of all non-zone surfaces
    zone points     : attract to zone surface only

Wanted displacement : average:0.0012787903 min:3.9766382e-07 max:0.0057956339
Calculated surface displacement in = 0.02 s


Detecting near surfaces ...
Overriding nearest with intersection of close gaps at 0 out of 22438 points.
Overriding displacement on features :
   implicit features    : false
   explicit features    : true
   multi-patch features : false

Detected 0 baffle edges out of 44872 edges.
Baffle points     : 0 of which attracted to :
    feature point : 0
    feature edge  : 0
    rest          : 0

Initially selected 2202 mesh points out of 22438 for reverse attraction.
Selected 5764 mesh points out of 22438 for reverse attraction.
Stringing feature edges : changed 50 points
Stringing feature edges : changed 4 points
Stringing feature edges : changed 6 points
Stringing feature edges : changed 3 points
Stringing feature edges : changed 3 points
Stringing feature edges : changed 2 points
Stringing feature edges : changed 3 points
Stringing feature edges : changed 2 points
Stringing feature edges : changed 1 points
Stringing feature edges : changed 1 points
Stringing feature edges : changed 2 points
Stringing feature edges : changed 1 points
Stringing feature edges : changed 1 points
Stringing feature edges : changed 2 points
Stringing feature edges : changed 1 points
Stringing feature edges : changed 1 points
Stringing feature edges : changed 2 points
Stringing feature edges : changed 1 points
Stringing feature edges : changed 1 points
Stringing feature edges : changed 1 points
Stringing feature edges : changed 0 points
Attraction:
    linear   : max:(0 0 0.0057956339) avg:(0.00020801723 0.00024035032 0.0002630999)
    feature  : max:(0.007829817 -0.0026360875 -0.0057015649) avg:(3.59589e-05 2.426786e-05 0.00011324638)
Feature analysis : total master points :22438 of which attracted to :
    feature point   : 48
    feature edge    : 1249
    nearest surface : 0
    rest            : 21141

--> FOAM Warning : Displacement (1.1255899e-05 -1.2919786e-05 0.0001315046) at mesh point 17438 coord (0.51093269 -2.7693676e-05 0.14289239) points through the surrounding patch faces
Smoothing displacement ...
Iteration 0
Iteration 10
Iteration 20
Displacement smoothed in = 1 s


Moving mesh ...

Iteration 0
Moving mesh using displacement scaling : min:1  max:1
Checking faces in error :
    non-orthogonality > 65  degrees                        : 0
    faces with face pyramid volume < 1e-13                 : 0
    faces with face-decomposition tet quality < 1e-09      : 0
    faces with concavity > 80  degrees                     : 0
    faces with skewness > 4   (internal) or 20  (boundary) : 0
    faces with interpolation weights (0..1)  < 0.05        : 0
    faces with volume ratio of neighbour cells < 0.01      : 0
    faces with face twist < 0.05                           : 0
    faces on cells with determinant < 0.001                : 0
Successfully moved mesh
Moved mesh in = 1.56 s



Morph iteration 3
-----------------
Calculating patchDisplacement as distance to nearest surface point ...
    non-zone points : attract to nearest of all non-zone surfaces
    zone points     : attract to zone surface only

Wanted displacement : average:0.00107092 min:1.5920669e-07 max:0.0054935951
Calculated surface displacement in = 0.02 s


Detecting near surfaces ...
Overriding nearest with intersection of close gaps at 0 out of 22438 points.
Overriding displacement on features :
   implicit features    : false
   explicit features    : true
   multi-patch features : false

Detected 0 baffle edges out of 44872 edges.
Baffle points     : 0 of which attracted to :
    feature point : 0
    feature edge  : 0
    rest          : 0

Initially selected 2189 mesh points out of 22438 for reverse attraction.
Selected 5758 mesh points out of 22438 for reverse attraction.
Stringing feature edges : changed 47 points
Stringing feature edges : changed 4 points
Stringing feature edges : changed 5 points
Stringing feature edges : changed 3 points
Stringing feature edges : changed 3 points
Stringing feature edges : changed 2 points
Stringing feature edges : changed 1 points
Stringing feature edges : changed 2 points
Stringing feature edges : changed 1 points
Stringing feature edges : changed 1 points
Stringing feature edges : changed 2 points
Stringing feature edges : changed 1 points
Stringing feature edges : changed 1 points
Stringing feature edges : changed 2 points
Stringing feature edges : changed 1 points
Stringing feature edges : changed 1 points
Stringing feature edges : changed 2 points
Stringing feature edges : changed 1 points
Stringing feature edges : changed 1 points
Stringing feature edges : changed 1 points
Stringing feature edges : changed 0 points
Attraction:
    linear   : max:(5.5511151e-17 -2.7755576e-17 0.0054935951) avg:(0.00016904403 0.00019419327 0.00021516138)
    feature  : max:(0.0071849527 -0.0029113445 -0.0054735023) avg:(3.1170771e-05 2.0754391e-05 0.00010778799)
Feature analysis : total master points :22438 of which attracted to :
    feature point   : 48
    feature edge    : 1247
    nearest surface : 0
    rest            : 21143

--> FOAM Warning : Displacement (1.2006285e-05 -1.3781097e-05 0.00022443452) at mesh point 17438 coord (0.51094394 -4.0613462e-05 0.14302389) points through the surrounding patch faces
Smoothing displacement ...
Iteration 0
Iteration 10
Iteration 20
Displacement smoothed in = 1 s


Moving mesh ...

Iteration 0
Moving mesh using displacement scaling : min:1  max:1
Checking faces in error :
    non-orthogonality > 65  degrees                        : 0
    faces with face pyramid volume < 1e-13                 : 0
    faces with face-decomposition tet quality < 1e-09      : 0
    faces with concavity > 80  degrees                     : 0
    faces with skewness > 4   (internal) or 20  (boundary) : 0
    faces with interpolation weights (0..1)  < 0.05        : 0
    faces with volume ratio of neighbour cells < 0.01      : 0
    faces with face twist < 0.05                           : 0
    faces on cells with determinant < 0.001                : 0
Successfully moved mesh
Moved mesh in = 1.56 s



Morph iteration 4
-----------------
Calculating patchDisplacement as distance to nearest surface point ...
    non-zone points : attract to nearest of all non-zone surfaces
    zone points     : attract to zone surface only

Wanted displacement : average:0.00083694574 min:1.288396e-08 max:0.0050202627
Calculated surface displacement in = 0.02 s


Detecting near surfaces ...
Overriding nearest with intersection of close gaps at 0 out of 22438 points.
Overriding displacement on features :
   implicit features    : false
   explicit features    : true
   multi-patch features : false

Detected 0 baffle edges out of 44872 edges.
Baffle points     : 0 of which attracted to :
    feature point : 0
    feature edge  : 0
    rest          : 0

Initially selected 2176 mesh points out of 22438 for reverse attraction.
Selected 5741 mesh points out of 22438 for reverse attraction.
Stringing feature edges : changed 46 points
Stringing feature edges : changed 4 points
Stringing feature edges : changed 5 points
Stringing feature edges : changed 3 points
Stringing feature edges : changed 3 points
Stringing feature edges : changed 2 points
Stringing feature edges : changed 1 points
Stringing feature edges : changed 2 points
Stringing feature edges : changed 1 points
Stringing feature edges : changed 1 points
Stringing feature edges : changed 2 points
Stringing feature edges : changed 1 points
Stringing feature edges : changed 1 points
Stringing feature edges : changed 2 points
Stringing feature edges : changed 1 points
Stringing feature edges : changed 1 points
Stringing feature edges : changed 2 points
Stringing feature edges : changed 1 points
Stringing feature edges : changed 1 points
Stringing feature edges : changed 1 points
Stringing feature edges : changed 0 points
Attraction:
    linear   : max:(0 4.1633363e-17 0.0050202627) avg:(0.00012656517 0.00014395636 0.0001608248)
    feature  : max:(0.0063497216 -0.0030765561 -0.0050842755) avg:(2.5468885e-05 1.6767723e-05 9.9189461e-05)
Feature analysis : total master points :22438 of which attracted to :
    feature point   : 48
    feature edge    : 1248
    nearest surface : 0
    rest            : 21142

--> FOAM Warning : Displacement (1.1005752e-05 -1.2632661e-05 0.00032574176) at mesh point 17438 coord (0.51095595 -5.4394559e-05 0.14324832) points through the surrounding patch faces
Smoothing displacement ...
Iteration 0
Iteration 10
Iteration 20
Displacement smoothed in = 1.01 s


Moving mesh ...

Iteration 0
Moving mesh using displacement scaling : min:1  max:1
Checking faces in error :
    non-orthogonality > 65  degrees                        : 0
    faces with face pyramid volume < 1e-13                 : 0
    faces with face-decomposition tet quality < 1e-09      : 0
    faces with concavity > 80  degrees                     : 0
    faces with skewness > 4   (internal) or 20  (boundary) : 0
    faces with interpolation weights (0..1)  < 0.05        : 0
    faces with volume ratio of neighbour cells < 0.01      : 0
    faces with face twist < 0.05                           : 0
    faces on cells with determinant < 0.001                : 0
Successfully moved mesh
Moved mesh in = 1.54 s



Morph iteration 5
-----------------
Calculating patchDisplacement as distance to nearest surface point ...
    non-zone points : attract to nearest of all non-zone surfaces
    zone points     : attract to zone surface only

Wanted displacement : average:0.00060636742 min:2.4733096e-08 max:0.0046829848
Calculated surface displacement in = 0.02 s


Detecting near surfaces ...
Overriding nearest with intersection of close gaps at 0 out of 22438 points.
Overriding displacement on features :
   implicit features    : false
   explicit features    : true
   multi-patch features : false

Detected 0 baffle edges out of 44872 edges.
Baffle points     : 0 of which attracted to :
    feature point : 0
    feature edge  : 0
    rest          : 0

Initially selected 2126 mesh points out of 22438 for reverse attraction.
Selected 5754 mesh points out of 22438 for reverse attraction.
Stringing feature edges : changed 42 points
Stringing feature edges : changed 5 points
Stringing feature edges : changed 9 points
Stringing feature edges : changed 7 points
Stringing feature edges : changed 6 points
Stringing feature edges : changed 5 points
Stringing feature edges : changed 0 points
Attraction:
    linear   : max:(-0.0046829848 -1.3877788e-17 0) avg:(8.6195403e-05 9.6792687e-05 0.00010716348)
    feature  : max:(0.005373946 -0.003044917 -0.004519356) avg:(2.0168689e-05 1.2811259e-05 8.8180271e-05)
Feature analysis : total master points :22438 of which attracted to :
    feature point   : 47
    feature edge    : 1250
    nearest surface : 0
    rest            : 21141

--> FOAM Warning : Displacement (8.8045905e-06 -1.0106116e-05 0.00041694946) at mesh point 17438 coord (0.51096696 -6.702722e-05 0.14357407) points through the surrounding patch faces
Smoothing displacement ...
Iteration 0
Iteration 10
Iteration 20
Displacement smoothed in = 0.99 s


Moving mesh ...

Iteration 0
Moving mesh using displacement scaling : min:1  max:1
Checking faces in error :
    non-orthogonality > 65  degrees                        : 0
    faces with face pyramid volume < 1e-13                 : 0
    faces with face-decomposition tet quality < 1e-09      : 0
    faces with concavity > 80  degrees                     : 0
    faces with skewness > 4   (internal) or 20  (boundary) : 0
    faces with interpolation weights (0..1)  < 0.05        : 0
    faces with volume ratio of neighbour cells < 0.01      : 0
    faces with face twist < 0.05                           : 0
    faces on cells with determinant < 0.001                : 0
Successfully moved mesh
Moved mesh in = 1.57 s



Morph iteration 6
-----------------
Calculating patchDisplacement as distance to nearest surface point ...
    non-zone points : attract to nearest of all non-zone surfaces
    zone points     : attract to zone surface only

Wanted displacement : average:0.00040183747 min:1.8824916e-07 max:0.004204072
Calculated surface displacement in = 0.02 s


Detecting near surfaces ...
Overriding nearest with intersection of close gaps at 0 out of 22438 points.
Overriding displacement on features :
   implicit features    : false
   explicit features    : true
   multi-patch features : false

Detected 0 baffle edges out of 44872 edges.
Baffle points     : 0 of which attracted to :
    feature point : 0
    feature edge  : 0
    rest          : 0

Initially selected 2125 mesh points out of 22438 for reverse attraction.
Selected 5740 mesh points out of 22438 for reverse attraction.
Stringing feature edges : changed 35 points
Stringing feature edges : changed 3 points
Stringing feature edges : changed 8 points
Stringing feature edges : changed 5 points
Stringing feature edges : changed 5 points
Stringing feature edges : changed 6 points
Stringing feature edges : changed 1 points
Stringing feature edges : changed 0 points
Attraction:
    linear   : max:(0 -0.004204072 0) avg:(5.2432723e-05 5.7994179e-05 6.0113913e-05)
    feature  : max:(0.0043195339 -0.0027810746 -0.003796259) avg:(1.5806893e-05 9.3076407e-06 7.3550148e-05)
Feature analysis : total master points :22438 of which attracted to :
    feature point   : 45
    feature edge    : 1247
    nearest surface : 0
    rest            : 21146

--> FOAM Warning : Displacement (6.1632004e-06 -7.0742667e-06 0.00047671221) at mesh point 17438 coord (0.51097576 -7.7133337e-05 0.14399102) points through the surrounding patch faces
Smoothing displacement ...
Iteration 0
Iteration 10
Iteration 20
Displacement smoothed in = 1.01 s


Moving mesh ...

Iteration 0
Moving mesh using displacement scaling : min:1  max:1
Checking faces in error :
    non-orthogonality > 65  degrees                        : 0
    faces with face pyramid volume < 1e-13                 : 0
    faces with face-decomposition tet quality < 1e-09      : 0
    faces with concavity > 80  degrees                     : 0
    faces with skewness > 4   (internal) or 20  (boundary) : 0
    faces with interpolation weights (0..1)  < 0.05        : 0
    faces with volume ratio of neighbour cells < 0.01      : 0
    faces with face twist < 0.05                           : 0
    faces on cells with determinant < 0.001                : 0
Successfully moved mesh
Moved mesh in = 1.55 s



Morph iteration 7
-----------------
Calculating patchDisplacement as distance to nearest surface point ...
    non-zone points : attract to nearest of all non-zone surfaces
    zone points     : attract to zone surface only

Wanted displacement : average:0.00024554781 min:2.2831642e-08 max:0.003288016
Calculated surface displacement in = 0.02 s


Detecting near surfaces ...
Overriding nearest with intersection of close gaps at 0 out of 22438 points.
Overriding displacement on features :
   implicit features    : false
   explicit features    : true
   multi-patch features : false

Detected 0 baffle edges out of 44872 edges.
Baffle points     : 0 of which attracted to :
    feature point : 0
    feature edge  : 0
    rest          : 0

Initially selected 2129 mesh points out of 22438 for reverse attraction.
Selected 5740 mesh points out of 22438 for reverse attraction.
Stringing feature edges : changed 27 points
Stringing feature edges : changed 1 points
Stringing feature edges : changed 2 points
Stringing feature edges : changed 1 points
Stringing feature edges : changed 1 points
Stringing feature edges : changed 2 points
Stringing feature edges : changed 1 points
Stringing feature edges : changed 1 points
Stringing feature edges : changed 2 points
Stringing feature edges : changed 1 points
Stringing feature edges : changed 1 points
Stringing feature edges : changed 2 points
Stringing feature edges : changed 1 points
Stringing feature edges : changed 1 points
Stringing feature edges : changed 2 points
Stringing feature edges : changed 1 points
Stringing feature edges : changed 1 points
Stringing feature edges : changed 2 points
Stringing feature edges : changed 1 points
Stringing feature edges : changed 1 points
Stringing feature edges : changed 1 points
Stringing feature edges : changed 0 points
Attraction:
    linear   : max:(0 1.3877788e-17 0.003288016) avg:(2.707579e-05 3.0256666e-05 2.3603453e-05)
    feature  : max:(0.003257763 -0.0023143881 -0.0029695182) avg:(1.1498891e-05 5.7513951e-06 5.7320795e-05)
Feature analysis : total master points :22438 of which attracted to :
    feature point   : 42
    feature edge    : 1246
    nearest surface : 0
    rest            : 21150

--> FOAM Warning : Displacement (3.7566026e-06 -4.311917e-06 0.00048704638) at mesh point 17438 coord (0.51098192 -8.4207604e-05 0.14446773) points through the surrounding patch faces
Smoothing displacement ...
Iteration 0
Iteration 10
Iteration 20
Displacement smoothed in = 0.99 s


Moving mesh ...

Iteration 0
Moving mesh using displacement scaling : min:1  max:1
Checking faces in error :
    non-orthogonality > 65  degrees                        : 0
    faces with face pyramid volume < 1e-13                 : 0
    faces with face-decomposition tet quality < 1e-09      : 0
    faces with concavity > 80  degrees                     : 0
    faces with skewness > 4   (internal) or 20  (boundary) : 0
    faces with interpolation weights (0..1)  < 0.05        : 0
    faces with volume ratio of neighbour cells < 0.01      : 0
    faces with face twist < 0.05                           : 0
    faces on cells with determinant < 0.001                : 0
Successfully moved mesh
Moved mesh in = 1.54 s



Morph iteration 8
-----------------
Calculating patchDisplacement as distance to nearest surface point ...
    non-zone points : attract to nearest of all non-zone surfaces
    zone points     : attract to zone surface only

Wanted displacement : average:0.00015143861 min:2.3900172e-08 max:0.0026371093
Calculated surface displacement in = 0.02 s


Detecting near surfaces ...
Overriding nearest with intersection of close gaps at 0 out of 22438 points.
Overriding displacement on features :
   implicit features    : false
   explicit features    : true
   multi-patch features : false

Detected 0 baffle edges out of 44872 edges.
Baffle points     : 0 of which attracted to :
    feature point : 0
    feature edge  : 0
    rest          : 0

Initially selected 2115 mesh points out of 22438 for reverse attraction.
Selected 5727 mesh points out of 22438 for reverse attraction.
Stringing feature edges : changed 23 points
Stringing feature edges : changed 1 points
Stringing feature edges : changed 2 points
Stringing feature edges : changed 1 points
Stringing feature edges : changed 1 points
Stringing feature edges : changed 2 points
Stringing feature edges : changed 1 points
Stringing feature edges : changed 1 points
Stringing feature edges : changed 2 points
Stringing feature edges : changed 1 points
Stringing feature edges : changed 1 points
Stringing feature edges : changed 2 points
Stringing feature edges : changed 1 points
Stringing feature edges : changed 1 points
Stringing feature edges : changed 2 points
Stringing feature edges : changed 1 points
Stringing feature edges : changed 1 points
Stringing feature edges : changed 2 points
Stringing feature edges : changed 1 points
Stringing feature edges : changed 1 points
Stringing feature edges : changed 1 points
Stringing feature edges : changed 0 points
Attraction:
    linear   : max:(0 -2.7755576e-17 0.0026371093) avg:(1.0663347e-05 1.3891038e-05 -1.1809893e-06)
    feature  : max:(0.0022665384 -0.0017301905 -0.0021248552) avg:(7.8567675e-06 3.8697404e-06 4.0727231e-05)
Feature analysis : total master points :22438 of which attracted to :
    feature point   : 40
    feature edge    : 1248
    nearest surface : 0
    rest            : 21150

--> FOAM Warning : Displacement (1.9721997e-06 -2.2637374e-06 0.00044108138) at mesh point 17438 coord (0.51098568 -8.8519521e-05 0.14495477) points through the surrounding patch faces
Smoothing displacement ...
Iteration 0
Iteration 10
Iteration 20
Displacement smoothed in = 1 s


Moving mesh ...

Iteration 0
Moving mesh using displacement scaling : min:1  max:1
Checking faces in error :
    non-orthogonality > 65  degrees                        : 0
    faces with face pyramid volume < 1e-13                 : 0
    faces with face-decomposition tet quality < 1e-09      : 1
    faces with concavity > 80  degrees                     : 0
    faces with skewness > 4   (internal) or 20  (boundary) : 0
    faces with interpolation weights (0..1)  < 0.05        : 0
    faces with volume ratio of neighbour cells < 0.01      : 0
    faces with face twist < 0.05                           : 1
    faces on cells with determinant < 0.001                : 0

Iteration 1
Moving mesh using displacement scaling : min:0.75  max:1
Checking faces in error :
    non-orthogonality > 65  degrees                        : 0
    faces with face pyramid volume < 1e-13                 : 0
    faces with face-decomposition tet quality < 1e-09      : 1
    faces with concavity > 80  degrees                     : 0
    faces with skewness > 4   (internal) or 20  (boundary) : 0
    faces with interpolation weights (0..1)  < 0.05        : 0
    faces with volume ratio of neighbour cells < 0.01      : 0
    faces with face twist < 0.05                           : 0
    faces on cells with determinant < 0.001                : 0

Iteration 2
Moving mesh using displacement scaling : min:0.5625  max:1
Checking faces in error :
    non-orthogonality > 65  degrees                        : 0
    faces with face pyramid volume < 1e-13                 : 0
    faces with face-decomposition tet quality < 1e-09      : 1
    faces with concavity > 80  degrees                     : 0
    faces with skewness > 4   (internal) or 20  (boundary) : 0
    faces with interpolation weights (0..1)  < 0.05        : 0
    faces with volume ratio of neighbour cells < 0.01      : 0
    faces with face twist < 0.05                           : 0
    faces on cells with determinant < 0.001                : 0

Iteration 3
Moving mesh using displacement scaling : min:0.421875  max:1
Checking faces in error :
    non-orthogonality > 65  degrees                        : 0
    faces with face pyramid volume < 1e-13                 : 0
    faces with face-decomposition tet quality < 1e-09      : 1
    faces with concavity > 80  degrees                     : 0
    faces with skewness > 4   (internal) or 20  (boundary) : 0
    faces with interpolation weights (0..1)  < 0.05        : 0
    faces with volume ratio of neighbour cells < 0.01      : 0
    faces with face twist < 0.05                           : 0
    faces on cells with determinant < 0.001                : 0

Iteration 4
Moving mesh using displacement scaling : min:0.31640625  max:1
Checking faces in error :
    non-orthogonality > 65  degrees                        : 0
    faces with face pyramid volume < 1e-13                 : 0
    faces with face-decomposition tet quality < 1e-09      : 0
    faces with concavity > 80  degrees                     : 0
    faces with skewness > 4   (internal) or 20  (boundary) : 0
    faces with interpolation weights (0..1)  < 0.05        : 0
    faces with volume ratio of neighbour cells < 0.01      : 0
    faces with face twist < 0.05                           : 1
    faces on cells with determinant < 0.001                : 0

Iteration 5
Displacement scaling for error reduction set to 0.
Moving mesh using displacement scaling : min:0.23730469  max:1
Checking faces in error :
    non-orthogonality > 65  degrees                        : 0
    faces with face pyramid volume < 1e-13                 : 0
    faces with face-decomposition tet quality < 1e-09      : 0
    faces with concavity > 80  degrees                     : 0
    faces with skewness > 4   (internal) or 20  (boundary) : 0
    faces with interpolation weights (0..1)  < 0.05        : 0
    faces with volume ratio of neighbour cells < 0.01      : 0
    faces with face twist < 0.05                           : 1
    faces on cells with determinant < 0.001                : 0

Iteration 6
Moving mesh using displacement scaling : min:0  max:1
Checking faces in error :
    non-orthogonality > 65  degrees                        : 0
    faces with face pyramid volume < 1e-13                 : 0
    faces with face-decomposition tet quality < 1e-09      : 0
    faces with concavity > 80  degrees                     : 0
    faces with skewness > 4   (internal) or 20  (boundary) : 0
    faces with interpolation weights (0..1)  < 0.05        : 0
    faces with volume ratio of neighbour cells < 0.01      : 0
    faces with face twist < 0.05                           : 0
    faces on cells with determinant < 0.001                : 0
Successfully moved mesh
Moved mesh in = 4.7 s



Morph iteration 9
-----------------
Calculating patchDisplacement as distance to nearest surface point ...
    non-zone points : attract to nearest of all non-zone surfaces
    zone points     : attract to zone surface only

Wanted displacement : average:9.6239923e-05 min:9.7099419e-09 max:0.0019697617
Calculated surface displacement in = 0.02 s


Detecting near surfaces ...
Overriding nearest with intersection of close gaps at 0 out of 22438 points.
Overriding displacement on features :
   implicit features    : false
   explicit features    : true
   multi-patch features : false

Detected 0 baffle edges out of 44872 edges.
Baffle points     : 0 of which attracted to :
    feature point : 0
    feature edge  : 0
    rest          : 0

Initially selected 2107 mesh points out of 22438 for reverse attraction.
Selected 5718 mesh points out of 22438 for reverse attraction.
Stringing feature edges : changed 18 points
Stringing feature edges : changed 1 points
Stringing feature edges : changed 2 points
Stringing feature edges : changed 1 points
Stringing feature edges : changed 1 points
Stringing feature edges : changed 2 points
Stringing feature edges : changed 1 points
Stringing feature edges : changed 1 points
Stringing feature edges : changed 2 points
Stringing feature edges : changed 1 points
Stringing feature edges : changed 1 points
Stringing feature edges : changed 2 points
Stringing feature edges : changed 1 points
Stringing feature edges : changed 1 points
Stringing feature edges : changed 2 points
Stringing feature edges : changed 1 points
Stringing feature edges : changed 1 points
Stringing feature edges : changed 2 points
Stringing feature edges : changed 1 points
Stringing feature edges : changed 1 points
Stringing feature edges : changed 1 points
Stringing feature edges : changed 0 points
Attraction:
    linear   : max:(-5.5511151e-17 1.3877788e-17 0.0019697617) avg:(1.7618965e-06 4.5089248e-06 -1.2447473e-05)
    feature  : max:(0.0030500272 -0.0036600212 0.00021819706) avg:(4.9317182e-06 2.2191862e-06 2.577807e-05)
Feature analysis : total master points :22438 of which attracted to :
    feature point   : 39
    feature edge    : 1248
    nearest surface : 0
    rest            : 21151

--> FOAM Warning : Displacement (8.7651475e-07 -1.0060843e-06 0.00034850875) at mesh point 17438 coord (0.51098765 -9.0783258e-05 0.14539586) points through the surrounding patch faces
Smoothing displacement ...
Iteration 0
Iteration 10
Iteration 20
Displacement smoothed in = 1 s


Moving mesh ...

Iteration 0
Moving mesh using displacement scaling : min:1  max:1
Checking faces in error :
    non-orthogonality > 65  degrees                        : 0
    faces with face pyramid volume < 1e-13                 : 0
    faces with face-decomposition tet quality < 1e-09      : 5
    faces with concavity > 80  degrees                     : 0
    faces with skewness > 4   (internal) or 20  (boundary) : 0
    faces with interpolation weights (0..1)  < 0.05        : 0
    faces with volume ratio of neighbour cells < 0.01      : 0
    faces with face twist < 0.05                           : 1
    faces on cells with determinant < 0.001                : 0

Iteration 1
Moving mesh using displacement scaling : min:0.75  max:1
Checking faces in error :
    non-orthogonality > 65  degrees                        : 0
    faces with face pyramid volume < 1e-13                 : 0
    faces with face-decomposition tet quality < 1e-09      : 2
    faces with concavity > 80  degrees                     : 0
    faces with skewness > 4   (internal) or 20  (boundary) : 0
    faces with interpolation weights (0..1)  < 0.05        : 0
    faces with volume ratio of neighbour cells < 0.01      : 0
    faces with face twist < 0.05                           : 2
    faces on cells with determinant < 0.001                : 0

Iteration 2
Moving mesh using displacement scaling : min:0.5625  max:1
Checking faces in error :
    non-orthogonality > 65  degrees                        : 0
    faces with face pyramid volume < 1e-13                 : 0
    faces with face-decomposition tet quality < 1e-09      : 1
    faces with concavity > 80  degrees                     : 0
    faces with skewness > 4   (internal) or 20  (boundary) : 0
    faces with interpolation weights (0..1)  < 0.05        : 0
    faces with volume ratio of neighbour cells < 0.01      : 0
    faces with face twist < 0.05                           : 1
    faces on cells with determinant < 0.001                : 0

Iteration 3
Moving mesh using displacement scaling : min:0.421875  max:1
Checking faces in error :
    non-orthogonality > 65  degrees                        : 0
    faces with face pyramid volume < 1e-13                 : 0
    faces with face-decomposition tet quality < 1e-09      : 1
    faces with concavity > 80  degrees                     : 0
    faces with skewness > 4   (internal) or 20  (boundary) : 0
    faces with interpolation weights (0..1)  < 0.05        : 0
    faces with volume ratio of neighbour cells < 0.01      : 0
    faces with face twist < 0.05                           : 0
    faces on cells with determinant < 0.001                : 0

Iteration 4
Moving mesh using displacement scaling : min:0.31640625  max:1
Checking faces in error :
    non-orthogonality > 65  degrees                        : 0
    faces with face pyramid volume < 1e-13                 : 0
    faces with face-decomposition tet quality < 1e-09      : 0
    faces with concavity > 80  degrees                     : 0
    faces with skewness > 4   (internal) or 20  (boundary) : 0
    faces with interpolation weights (0..1)  < 0.05        : 0
    faces with volume ratio of neighbour cells < 0.01      : 0
    faces with face twist < 0.05                           : 1
    faces on cells with determinant < 0.001                : 0

Iteration 5
Displacement scaling for error reduction set to 0.
Moving mesh using displacement scaling : min:0.23730469  max:1
Checking faces in error :
    non-orthogonality > 65  degrees                        : 0
    faces with face pyramid volume < 1e-13                 : 0
    faces with face-decomposition tet quality < 1e-09      : 0
    faces with concavity > 80  degrees                     : 0
    faces with skewness > 4   (internal) or 20  (boundary) : 0
    faces with interpolation weights (0..1)  < 0.05        : 0
    faces with volume ratio of neighbour cells < 0.01      : 0
    faces with face twist < 0.05                           : 1
    faces on cells with determinant < 0.001                : 0

Iteration 6
Moving mesh using displacement scaling : min:0  max:1
Checking faces in error :
    non-orthogonality > 65  degrees                        : 0
    faces with face pyramid volume < 1e-13                 : 0
    faces with face-decomposition tet quality < 1e-09      : 0
    faces with concavity > 80  degrees                     : 0
    faces with skewness > 4   (internal) or 20  (boundary) : 0
    faces with interpolation weights (0..1)  < 0.05        : 0
    faces with volume ratio of neighbour cells < 0.01      : 0
    faces with face twist < 0.05                           : 0
    faces on cells with determinant < 0.001                : 0
Successfully moved mesh
Moved mesh in = 4.66 s



Morph iteration 10
-----------------
Calculating patchDisplacement as distance to nearest surface point ...
    non-zone points : attract to nearest of all non-zone surfaces
    zone points     : attract to zone surface only

Wanted displacement : average:6.4543534e-05 min:6.7327677e-10 max:0.0013293602
Calculated surface displacement in = 0.02 s


Detecting near surfaces ...
Overriding nearest with intersection of close gaps at 2 out of 22438 points.
Overriding displacement on features :
   implicit features    : false
   explicit features    : true
   multi-patch features : false

Detected 0 baffle edges out of 44872 edges.
Baffle points     : 0 of which attracted to :
    feature point : 0
    feature edge  : 0
    rest          : 0

Initially selected 2104 mesh points out of 22438 for reverse attraction.
Selected 5714 mesh points out of 22438 for reverse attraction.
Stringing feature edges : changed 21 points
Stringing feature edges : changed 5 points
Stringing feature edges : changed 6 points
Stringing feature edges : changed 5 points
Stringing feature edges : changed 5 points
Stringing feature edges : changed 5 points
Stringing feature edges : changed 1 points
Stringing feature edges : changed 1 points
Stringing feature edges : changed 2 points
Stringing feature edges : changed 1 points
Stringing feature edges : changed 1 points
Stringing feature edges : changed 2 points
Stringing feature edges : changed 1 points
Stringing feature edges : changed 1 points
Stringing feature edges : changed 2 points
Stringing feature edges : changed 1 points
Stringing feature edges : changed 1 points
Stringing feature edges : changed 2 points
Stringing feature edges : changed 1 points
Stringing feature edges : changed 1 points
Stringing feature edges : changed 1 points
Stringing feature edges : changed 0 points
Attraction:
    linear   : max:(-5.5511151e-17 1.3877788e-17 0.0013293602) avg:(-1.7810486e-06 6.2254872e-07 -1.4288525e-05)
    feature  : max:(0 -0.00084081792 0.0034811175) avg:(2.698672e-06 6.9770799e-07 1.5662166e-05)
Feature analysis : total master points :22438 of which attracted to :
    feature point   : 39
    feature edge    : 1271
    nearest surface : 0
    rest            : 21128

--> FOAM Warning : Displacement (3.2136842e-07 -3.6887425e-07 0.00023427532) at mesh point 17438 coord (0.51098853 -9.1789342e-05 0.14574436) points through the surrounding patch faces
Smoothing displacement ...
Iteration 0
Iteration 10
Iteration 20
Displacement smoothed in = 0.98 s


Moving mesh ...

Iteration 0
Moving mesh using displacement scaling : min:1  max:1
Checking faces in error :
    non-orthogonality > 65  degrees                        : 0
    faces with face pyramid volume < 1e-13                 : 0
    faces with face-decomposition tet quality < 1e-09      : 8
    faces with concavity > 80  degrees                     : 0
    faces with skewness > 4   (internal) or 20  (boundary) : 0
    faces with interpolation weights (0..1)  < 0.05        : 0
    faces with volume ratio of neighbour cells < 0.01      : 0
    faces with face twist < 0.05                           : 3
    faces on cells with determinant < 0.001                : 0

Iteration 1
Moving mesh using displacement scaling : min:0.75  max:1
Checking faces in error :
    non-orthogonality > 65  degrees                        : 0
    faces with face pyramid volume < 1e-13                 : 0
    faces with face-decomposition tet quality < 1e-09      : 5
    faces with concavity > 80  degrees                     : 0
    faces with skewness > 4   (internal) or 20  (boundary) : 0
    faces with interpolation weights (0..1)  < 0.05        : 0
    faces with volume ratio of neighbour cells < 0.01      : 0
    faces with face twist < 0.05                           : 0
    faces on cells with determinant < 0.001                : 0

Iteration 2
Moving mesh using displacement scaling : min:0.5625  max:1
Checking faces in error :
    non-orthogonality > 65  degrees                        : 0
    faces with face pyramid volume < 1e-13                 : 0
    faces with face-decomposition tet quality < 1e-09      : 5
    faces with concavity > 80  degrees                     : 0
    faces with skewness > 4   (internal) or 20  (boundary) : 0
    faces with interpolation weights (0..1)  < 0.05        : 0
    faces with volume ratio of neighbour cells < 0.01      : 0
    faces with face twist < 0.05                           : 0
    faces on cells with determinant < 0.001                : 0

Iteration 3
Moving mesh using displacement scaling : min:0.421875  max:1
Checking faces in error :
    non-orthogonality > 65  degrees                        : 0
    faces with face pyramid volume < 1e-13                 : 0
    faces with face-decomposition tet quality < 1e-09      : 5
    faces with concavity > 80  degrees                     : 0
    faces with skewness > 4   (internal) or 20  (boundary) : 0
    faces with interpolation weights (0..1)  < 0.05        : 0
    faces with volume ratio of neighbour cells < 0.01      : 0
    faces with face twist < 0.05                           : 0
    faces on cells with determinant < 0.001                : 0

Iteration 4
Moving mesh using displacement scaling : min:0.31640625  max:1
Checking faces in error :
    non-orthogonality > 65  degrees                        : 0
    faces with face pyramid volume < 1e-13                 : 0
    faces with face-decomposition tet quality < 1e-09      : 2
    faces with concavity > 80  degrees                     : 0
    faces with skewness > 4   (internal) or 20  (boundary) : 0
    faces with interpolation weights (0..1)  < 0.05        : 0
    faces with volume ratio of neighbour cells < 0.01      : 0
    faces with face twist < 0.05                           : 2
    faces on cells with determinant < 0.001                : 0

Iteration 5
Displacement scaling for error reduction set to 0.
Moving mesh using displacement scaling : min:0.23730469  max:1
Checking faces in error :
    non-orthogonality > 65  degrees                        : 0
    faces with face pyramid volume < 1e-13                 : 0
    faces with face-decomposition tet quality < 1e-09      : 1
    faces with concavity > 80  degrees                     : 0
    faces with skewness > 4   (internal) or 20  (boundary) : 0
    faces with interpolation weights (0..1)  < 0.05        : 0
    faces with volume ratio of neighbour cells < 0.01      : 0
    faces with face twist < 0.05                           : 3
    faces on cells with determinant < 0.001                : 0

Iteration 6
Moving mesh using displacement scaling : min:0  max:1
Checking faces in error :
    non-orthogonality > 65  degrees                        : 0
    faces with face pyramid volume < 1e-13                 : 0
    faces with face-decomposition tet quality < 1e-09      : 0
    faces with concavity > 80  degrees                     : 0
    faces with skewness > 4   (internal) or 20  (boundary) : 0
    faces with interpolation weights (0..1)  < 0.05        : 0
    faces with volume ratio of neighbour cells < 0.01      : 0
    faces with face twist < 0.05                           : 0
    faces on cells with determinant < 0.001                : 0
Successfully moved mesh
Moved mesh in = 4.65 s



Morph iteration 11
-----------------
Calculating patchDisplacement as distance to nearest surface point ...
    non-zone points : attract to nearest of all non-zone surfaces
    zone points     : attract to zone surface only

Wanted displacement : average:4.2925708e-05 min:1.2938219e-10 max:0.00079345867
Calculated surface displacement in = 0.01 s


Detecting near surfaces ...
Overriding nearest with intersection of close gaps at 5 out of 22438 points.
Overriding displacement on features :
   implicit features    : false
   explicit features    : true
   multi-patch features : false

Detected 0 baffle edges out of 44872 edges.
Baffle points     : 0 of which attracted to :
    feature point : 0
    feature edge  : 0
    rest          : 0

Initially selected 2106 mesh points out of 22438 for reverse attraction.
Selected 5728 mesh points out of 22438 for reverse attraction.
Stringing feature edges : changed 19 points
Stringing feature edges : changed 5 points
Stringing feature edges : changed 6 points
Stringing feature edges : changed 5 points
Stringing feature edges : changed 5 points
Stringing feature edges : changed 5 points
Stringing feature edges : changed 1 points
Stringing feature edges : changed 1 points
Stringing feature edges : changed 2 points
Stringing feature edges : changed 1 points
Stringing feature edges : changed 1 points
Stringing feature edges : changed 2 points
Stringing feature edges : changed 1 points
Stringing feature edges : changed 1 points
Stringing feature edges : changed 2 points
Stringing feature edges : changed 1 points
Stringing feature edges : changed 1 points
Stringing feature edges : changed 2 points
Stringing feature edges : changed 1 points
Stringing feature edges : changed 1 points
Stringing feature edges : changed 1 points
Stringing feature edges : changed 0 points
Attraction:
    linear   : max:(-0.00052121216 0.0005982596 0) avg:(-2.1267725e-06 -5.7294801e-07 -1.1295193e-05)
    feature  : max:(3.8752133e-05 0.0021821697 0.0017803005) avg:(1.3267846e-06 2.8035123e-07 7.4642904e-06)
Feature analysis : total master points :22438 of which attracted to :
    feature point   : 38
    feature edge    : 1272
    nearest surface : 0
    rest            : 21128

--> FOAM Warning : Displacement (9.3466832e-08 -1.0728343e-07 0.00012887079) at mesh point 17438 coord (0.51098885 -9.2158216e-05 0.14597864) points through the surrounding patch faces
Smoothing displacement ...
Iteration 0
Iteration 10
Iteration 20
Displacement smoothed in = 1 s


Moving mesh ...

Iteration 0
Moving mesh using displacement scaling : min:1  max:1
Checking faces in error :
    non-orthogonality > 65  degrees                        : 0
    faces with face pyramid volume < 1e-13                 : 0
    faces with face-decomposition tet quality < 1e-09      : 9
    faces with concavity > 80  degrees                     : 0
    faces with skewness > 4   (internal) or 20  (boundary) : 0
    faces with interpolation weights (0..1)  < 0.05        : 0
    faces with volume ratio of neighbour cells < 0.01      : 0
    faces with face twist < 0.05                           : 6
    faces on cells with determinant < 0.001                : 0

Iteration 1
Moving mesh using displacement scaling : min:0.75  max:1
Checking faces in error :
    non-orthogonality > 65  degrees                        : 0
    faces with face pyramid volume < 1e-13                 : 0
    faces with face-decomposition tet quality < 1e-09      : 7
    faces with concavity > 80  degrees                     : 0
    faces with skewness > 4   (internal) or 20  (boundary) : 0
    faces with interpolation weights (0..1)  < 0.05        : 0
    faces with volume ratio of neighbour cells < 0.01      : 0
    faces with face twist < 0.05                           : 5
    faces on cells with determinant < 0.001                : 0

Iteration 2
Moving mesh using displacement scaling : min:0.5625  max:1
Checking faces in error :
    non-orthogonality > 65  degrees                        : 0
    faces with face pyramid volume < 1e-13                 : 0
    faces with face-decomposition tet quality < 1e-09      : 7
    faces with concavity > 80  degrees                     : 0
    faces with skewness > 4   (internal) or 20  (boundary) : 0
    faces with interpolation weights (0..1)  < 0.05        : 0
    faces with volume ratio of neighbour cells < 0.01      : 0
    faces with face twist < 0.05                           : 4
    faces on cells with determinant < 0.001                : 0

Iteration 3
Moving mesh using displacement scaling : min:0.421875  max:1
Checking faces in error :
    non-orthogonality > 65  degrees                        : 0
    faces with face pyramid volume < 1e-13                 : 0
    faces with face-decomposition tet quality < 1e-09      : 7
    faces with concavity > 80  degrees                     : 0
    faces with skewness > 4   (internal) or 20  (boundary) : 0
    faces with interpolation weights (0..1)  < 0.05        : 0
    faces with volume ratio of neighbour cells < 0.01      : 0
    faces with face twist < 0.05                           : 4
    faces on cells with determinant < 0.001                : 0

Iteration 4
Moving mesh using displacement scaling : min:0.31640625  max:1
Checking faces in error :
    non-orthogonality > 65  degrees                        : 0
    faces with face pyramid volume < 1e-13                 : 0
    faces with face-decomposition tet quality < 1e-09      : 5
    faces with concavity > 80  degrees                     : 0
    faces with skewness > 4   (internal) or 20  (boundary) : 0
    faces with interpolation weights (0..1)  < 0.05        : 0
    faces with volume ratio of neighbour cells < 0.01      : 0
    faces with face twist < 0.05                           : 4
    faces on cells with determinant < 0.001                : 0

Iteration 5
Displacement scaling for error reduction set to 0.
Moving mesh using displacement scaling : min:0.23730469  max:1
Checking faces in error :
    non-orthogonality > 65  degrees                        : 0
    faces with face pyramid volume < 1e-13                 : 0
    faces with face-decomposition tet quality < 1e-09      : 3
    faces with concavity > 80  degrees                     : 0
    faces with skewness > 4   (internal) or 20  (boundary) : 0
    faces with interpolation weights (0..1)  < 0.05        : 0
    faces with volume ratio of neighbour cells < 0.01      : 0
    faces with face twist < 0.05                           : 6
    faces on cells with determinant < 0.001                : 0

Iteration 6
Moving mesh using displacement scaling : min:0  max:1
Checking faces in error :
    non-orthogonality > 65  degrees                        : 0
    faces with face pyramid volume < 1e-13                 : 0
    faces with face-decomposition tet quality < 1e-09      : 0
    faces with concavity > 80  degrees                     : 0
    faces with skewness > 4   (internal) or 20  (boundary) : 0
    faces with interpolation weights (0..1)  < 0.05        : 0
    faces with volume ratio of neighbour cells < 0.01      : 0
    faces with face twist < 0.05                           : 0
    faces on cells with determinant < 0.001                : 0
Successfully moved mesh
Moved mesh in = 4.7 s



Morph iteration 12
-----------------
Calculating patchDisplacement as distance to nearest surface point ...
    non-zone points : attract to nearest of all non-zone surfaces
    zone points     : attract to zone surface only

Wanted displacement : average:2.4272954e-05 min:3.1747036e-11 max:0.00079345867
Calculated surface displacement in = 0.01 s


Detecting near surfaces ...
Overriding nearest with intersection of close gaps at 8 out of 22438 points.
Overriding displacement on features :
   implicit features    : false
   explicit features    : true
   multi-patch features : false

Detected 0 baffle edges out of 44872 edges.
Baffle points     : 0 of which attracted to :
    feature point : 0
    feature edge  : 0
    rest          : 0

Initially selected 2107 mesh points out of 22438 for reverse attraction.
Selected 5731 mesh points out of 22438 for reverse attraction.
Stringing feature edges : changed 21 points
Stringing feature edges : changed 9 points
Stringing feature edges : changed 10 points
Stringing feature edges : changed 9 points
Stringing feature edges : changed 9 points
Stringing feature edges : changed 7 points
Stringing feature edges : changed 1 points
Stringing feature edges : changed 1 points
Stringing feature edges : changed 2 points
Stringing feature edges : changed 1 points
Stringing feature edges : changed 1 points
Stringing feature edges : changed 2 points
Stringing feature edges : changed 1 points
Stringing feature edges : changed 1 points
Stringing feature edges : changed 2 points
Stringing feature edges : changed 1 points
Stringing feature edges : changed 1 points
Stringing feature edges : changed 2 points
Stringing feature edges : changed 1 points
Stringing feature edges : changed 1 points
Stringing feature edges : changed 1 points
Stringing feature edges : changed 0 points
Attraction:
    linear   : max:(-0.00052121216 0.0005982596 0) avg:(-1.2701561e-06 -6.5973261e-07 -6.372056e-06)
    feature  : max:(3.8752133e-05 0.0021821697 0.0017803005) avg:(5.9539404e-07 1.6285771e-06 3.1171563e-06)
Feature analysis : total master points :22438 of which attracted to :
    feature point   : 38
    feature edge    : 1294
    nearest surface : 0
    rest            : 21106

--> FOAM Warning : Displacement (2.0227136e-08 -2.3217183e-08 5.4447908e-05) at mesh point 17438 coord (0.51098894 -9.22655e-05 0.14610751) points through the surrounding patch faces
Smoothing displacement ...
Iteration 0
Iteration 10
Iteration 20
Displacement smoothed in = 0.98 s


Moving mesh ...

Iteration 0
Moving mesh using displacement scaling : min:1  max:1
Checking faces in error :
[...]

// * * * * * * * * * * * * * * * * * * * * * * * * * * * * * * * * * * * * * //
Create time

Creating block mesh from "system/blockMeshDict"
Creating block edges
No non-planar block faces defined
Creating topology blocks

Creating topology patches - from boundary section

Creating block mesh topology

Check topology

	Basic statistics
		Number of internal faces : 0
		Number of boundary faces : 6
		Number of defined boundary faces : 6
		Number of undefined boundary faces : 0
	Checking patch -> block consistency

Creating block offsets
Creating merge list (topological search)...

Creating polyMesh from blockMesh
Creating patches
Creating cells
Creating points with scale (1 1 1)
    Block 0 cell size :
        i : 0.11627907 .. 0.11627907
        j : 0.11666667 .. 0.11666667
        k : 0.11538462 .. 0.11538462

No patch pairs to merge

Writing polyMesh with 0 cellZones
----------------
Mesh Information
----------------
  boundingBox: (-6.5 -1.75 -0.85) (3.5 1.75 0.65)
  nPoints: 37758
  nCells: 33540
  nFaces: 104708
  nInternalFaces: 96532
----------------
Patches
----------------
  patch 0 (start: 96532 size: 0) name: overset-1
  patch 1 (start: 96532 size: 0) name: overset-2
  patch 2 (start: 96532 size: 390) name: outlet
  patch 3 (start: 96922 size: 390) name: inlet
  patch 4 (start: 97312 size: 2236) name: frontAndBack
  patch 5 (start: 99548 size: 2580) name: bottom
  patch 6 (start: 102128 size: 2580) name: atmosphere

End

/*---------------------------------------------------------------------------*\
| =========                 |                                                 |
| \\      /  F ield         | OpenFOAM: The Open Source CFD Toolbox           |
|  \\    /   O peration     | Version:  2306                                  |
|   \\  /    A nd           | Website:  www.openfoam.com                      |
|    \\/     M anipulation  |                                                 |
\*---------------------------------------------------------------------------*/
Build  : _fbf00d6b-20230626 OPENFOAM=2306 version=2306
Arch   : "LSB;label=32;scalar=64"
Exec   : mergeMeshes /home/nkhadi001/OpenFOAM/nkhadi001-2306/foamMooring/tutorial/mooredrigidBodyHull/background /home/nkhadi001/OpenFOAM/nkhadi001-2306/foamMooring/tutorial/mooredrigidBodyHull/overset-1 -overwrite
Date   : Aug 13 2024
Time   : 00:03:11
Host   : srvcnthpc113.uct.ac.za
PID    : 56357
I/O    : uncollated
Case   : /home/nkhadi001
nProcs : 1
trapFpe: Floating point exception trapping enabled (FOAM_SIGFPE).
fileModificationChecking : Monitoring run-time modified files using timeStampMaster (fileModificationSkew 5, maxFileModificationPolls 20)
allowSystemOperations : Allowing user-supplied system call operations

// * * * * * * * * * * * * * * * * * * * * * * * * * * * * * * * * * * * * * //
Master:      "/home/nkhadi001/OpenFOAM/nkhadi001-2306/foamMooring/tutorial/mooredrigidBodyHull/background"  region region0
mesh to add: "/home/nkhadi001/OpenFOAM/nkhadi001-2306/foamMooring/tutorial/mooredrigidBodyHull/overset-1"  region region0

Create Times
Reading master mesh for time = 0
Create mesh

Reading mesh to add for time = 0
Create mesh

Writing combined mesh to 0
patch names: 8(overset-1 overset-2 outlet inlet frontAndBack bottom atmosphere vessel)
patch dicts: 
8
(

{
    type            overset;
    inGroups        1 ( overset );
    nFaces          0;
    startFace       96532;
}


{
    type            overset;
    inGroups        1 ( overset );
    nFaces          0;
    startFace       96532;
}


{
    type            patch;
    nFaces          390;
    startFace       96532;
}


{
    type            patch;
    nFaces          390;
    startFace       96922;
}


{
    type            wall;
    inGroups        1 ( wall );
    nFaces          2236;
    startFace       97312;
}


{
    type            wall;
    inGroups        1 ( wall );
    nFaces          2580;
    startFace       99548;
}


{
    type            patch;
    nFaces          2580;
    startFace       102128;
}


{
    type            wall;
    inGroups        1 ( wall );
    nFaces          21148;
    startFace       1546508;
}

)

point zone names: 1(frozenPoints)
face zone names: 0()
cell zone names: 0()
Copying old patches
Adding new patches. 
Adding new pointZones.
Reordering processor patches last
End

/*---------------------------------------------------------------------------*\
| =========                 |                                                 |
| \\      /  F ield         | OpenFOAM: The Open Source CFD Toolbox           |
|  \\    /   O peration     | Version:  2306                                  |
|   \\  /    A nd           | Website:  www.openfoam.com                      |
|    \\/     M anipulation  |                                                 |
\*---------------------------------------------------------------------------*/
Build  : _fbf00d6b-20230626 OPENFOAM=2306 version=2306
Arch   : "LSB;label=32;scalar=64"
Exec   : mergeMeshes /home/nkhadi001/OpenFOAM/nkhadi001-2306/foamMooring/tutorial/mooredrigidBodyHull/background /home/nkhadi001/OpenFOAM/nkhadi001-2306/foamMooring/tutorial/mooredrigidBodyHull/overset-2 -overwrite
Date   : Aug 13 2024
Time   : 00:03:16
Host   : srvcnthpc113.uct.ac.za
PID    : 56775
I/O    : uncollated
Case   : /home/nkhadi001
nProcs : 1
trapFpe: Floating point exception trapping enabled (FOAM_SIGFPE).
fileModificationChecking : Monitoring run-time modified files using timeStampMaster (fileModificationSkew 5, maxFileModificationPolls 20)
allowSystemOperations : Allowing user-supplied system call operations

// * * * * * * * * * * * * * * * * * * * * * * * * * * * * * * * * * * * * * //
Master:      "/home/nkhadi001/OpenFOAM/nkhadi001-2306/foamMooring/tutorial/mooredrigidBodyHull/background"  region region0
mesh to add: "/home/nkhadi001/OpenFOAM/nkhadi001-2306/foamMooring/tutorial/mooredrigidBodyHull/overset-2"  region region0

Create Times
Reading master mesh for time = 0
Create mesh

Reading mesh to add for time = 0
Create mesh

Writing combined mesh to 0
patch names: 9(overset-1 overset-2 outlet inlet frontAndBack bottom atmosphere vessel pendulum)
patch dicts: 
9
(

{
    type            overset;
    inGroups        1 ( overset );
    nFaces          24702;
    startFace       1618338;
}


{
    type            overset;
    inGroups        1 ( overset );
    nFaces          0;
    startFace       1643040;
}


{
    type            patch;
    nFaces          390;
    startFace       1643040;
}


{
    type            patch;
    nFaces          390;
    startFace       1643430;
}


{
    type            wall;
    inGroups        1 ( wall );
    nFaces          2236;
    startFace       1643820;
}


{
    type            wall;
    inGroups        1 ( wall );
    nFaces          2580;
    startFace       1646056;
}


{
    type            patch;
    nFaces          2580;
    startFace       1648636;
}


{
    type            wall;
    inGroups        1 ( wall );
    nFaces          21148;
    startFace       1651216;
}


{
    type            wall;
    inGroups        1 ( wall );
    nFaces          6800;
    startFace       101190;
}

)

point zone names: 1(frozenPoints)
face zone names: 0()
cell zone names: 0()
Copying old patches
Adding new patches. 
Reordering processor patches last
End

/*---------------------------------------------------------------------------*\
| =========                 |                                                 |
| \\      /  F ield         | OpenFOAM: The Open Source CFD Toolbox           |
|  \\    /   O peration     | Version:  2306                                  |
|   \\  /    A nd           | Website:  www.openfoam.com                      |
|    \\/     M anipulation  |                                                 |
\*---------------------------------------------------------------------------*/
Build  : _fbf00d6b-20230626 OPENFOAM=2306 version=2306
Arch   : "LSB;label=32;scalar=64"
Exec   : topoSet -case /home/nkhadi001/OpenFOAM/nkhadi001-2306/foamMooring/tutorial/mooredrigidBodyHull/background -dict system/topoSetDictBox1
Date   : Aug 13 2024
Time   : 00:03:20
Host   : srvcnthpc113.uct.ac.za
PID    : 57196
I/O    : uncollated
Case   : /home/nkhadi001/OpenFOAM/nkhadi001-2306/foamMooring/tutorial/mooredrigidBodyHull/background
nProcs : 1
trapFpe: Floating point exception trapping enabled (FOAM_SIGFPE).
fileModificationChecking : Monitoring run-time modified files using timeStampMaster (fileModificationSkew 5, maxFileModificationPolls 20)
allowSystemOperations : Allowing user-supplied system call operations

// * * * * * * * * * * * * * * * * * * * * * * * * * * * * * * * * * * * * * //
Create time

Create polyMesh for time = 0

Reading topoSetDictBox1

Time = 0
    mesh not changed.
Created cellSet bgr0
    Applying source boxToCell
    Adding cells with centre within boxes 1((-6.5 -1.75 -0.85) (3.5 1.75 0.65))
    cellSet bgr0 now size 576815
Created cellSet vessel
    Applying source boxToCell
    Adding cells with centre within boxes 1((-0.7 -0.2 -0.7) (0.7 0.2 0.4))
    cellSet vessel now size 531693
Created cellSet pendulum
    Applying source boxToCell
    Adding cells with centre within boxes 1((-0.1 -0.1 -0.65) (0.1 0.1 0))
    cellSet pendulum now size 36900
Created cellSet box
    Applying source cellToCell
    Adding all elements of cell sets: (vessel)
    cellSet box now size 531693
Read set cellSet box size:531693
    Applying source boxToCell
    Adding cells with centre within boxes 1((-0.45 -0.14 -0.07) (0.55 0.14 0.36))
    cellSet box now size 218775
Read set cellSet box size:218775
    Inverting cellSet
    cellSet box now size 358040
Created cellSet keepBox
    Applying source cellToCell
    Adding all elements of cell sets: (box)
    cellSet keepBox now size 358040
Read set cellSet keepBox size:358040
    Applying source cellToCell
    Adding all elements of cell sets: (pendulum)
    cellSet keepBox now size 359552
Read set cellSet keepBox size:359552
    Applying source cellToCell
    Adding all elements of cell sets: (bgr0)
    cellSet keepBox now size 576815

End

/*---------------------------------------------------------------------------*\
| =========                 |                                                 |
| \\      /  F ield         | OpenFOAM: The Open Source CFD Toolbox           |
|  \\    /   O peration     | Version:  2306                                  |
|   \\  /    A nd           | Website:  www.openfoam.com                      |
|    \\/     M anipulation  |                                                 |
\*---------------------------------------------------------------------------*/
Build  : _fbf00d6b-20230626 OPENFOAM=2306 version=2306
Arch   : "LSB;label=32;scalar=64"
Exec   : topoSet -case /home/nkhadi001/OpenFOAM/nkhadi001-2306/foamMooring/tutorial/mooredrigidBodyHull/background -dict system/topoSetDictBox2
Date   : Aug 13 2024
Time   : 00:03:24
Host   : srvcnthpc113.uct.ac.za
PID    : 57616
I/O    : uncollated
Case   : /home/nkhadi001/OpenFOAM/nkhadi001-2306/foamMooring/tutorial/mooredrigidBodyHull/background
nProcs : 1
trapFpe: Floating point exception trapping enabled (FOAM_SIGFPE).
fileModificationChecking : Monitoring run-time modified files using timeStampMaster (fileModificationSkew 5, maxFileModificationPolls 20)
allowSystemOperations : Allowing user-supplied system call operations

// * * * * * * * * * * * * * * * * * * * * * * * * * * * * * * * * * * * * * //
Create time

Create polyMesh for time = 0

Reading topoSetDictBox2

Time = 0
    mesh not changed.
Created cellSet bgr0
    Applying source boxToCell
    Adding cells with centre within boxes 1((-6.5 -1.75 -0.85) (3.5 1.75 0.65))
    cellSet bgr0 now size 576815
Created cellSet vessel
    Applying source boxToCell
    Adding cells with centre within boxes 1((-0.7 -0.2 -0.7) (0.7 0.2 0.4))
    cellSet vessel now size 531693
Created cellSet pendulum
    Applying source boxToCell
    Adding cells with centre within boxes 1((-0.1 -0.1 -0.65) (0.1 0.1 0))
    cellSet pendulum now size 36900
Created cellSet box
    Applying source cellToCell
    Adding all elements of cell sets: (pendulum)
    cellSet box now size 36900
Read set cellSet box size:36900
    Applying source boxToCell
    Adding cells with centre within boxes 1((-0.07 -0.07 -0.5) (0.07 0.07 -0.09))
    cellSet box now size 27438
Read set cellSet box size:27438
    Inverting cellSet
    cellSet box now size 549377
Created cellSet keepBox
    Applying source cellToCell
    Adding all elements of cell sets: (box)
    cellSet keepBox now size 549377
Read set cellSet keepBox size:549377
    Applying source cellToCell
    Adding all elements of cell sets: (vessel)
    cellSet keepBox now size 576815
Read set cellSet keepBox size:576815
    Applying source cellToCell
    Adding all elements of cell sets: (bgr0)
    cellSet keepBox now size 576815

End

/*---------------------------------------------------------------------------*\
| =========                 |                                                 |
| \\      /  F ield         | OpenFOAM: The Open Source CFD Toolbox           |
|  \\    /   O peration     | Version:  2306                                  |
|   \\  /    A nd           | Website:  www.openfoam.com                      |
|    \\/     M anipulation  |                                                 |
\*---------------------------------------------------------------------------*/
Build  : _fbf00d6b-20230626 OPENFOAM=2306 version=2306
Arch   : "LSB;label=32;scalar=64"
Exec   : setFields -case /home/nkhadi001/OpenFOAM/nkhadi001-2306/foamMooring/tutorial/mooredrigidBodyHull/background
Date   : Aug 13 2024
Time   : 00:03:28
Host   : srvcnthpc113.uct.ac.za
PID    : 58034
I/O    : uncollated
Case   : /home/nkhadi001/OpenFOAM/nkhadi001-2306/foamMooring/tutorial/mooredrigidBodyHull/background
nProcs : 1
trapFpe: Floating point exception trapping enabled (FOAM_SIGFPE).
fileModificationChecking : Monitoring run-time modified files using timeStampMaster (fileModificationSkew 5, maxFileModificationPolls 20)
allowSystemOperations : Allowing user-supplied system call operations

// * * * * * * * * * * * * * * * * * * * * * * * * * * * * * * * * * * * * * //
Create time

Create mesh for time = 0

Reading setFieldsDict

Setting volume field default values
    - set internal values of volScalarField: alpha.water = 0
    - set internal values of volScalarField: zoneID = 123

Setting field region values

    Adding cells with centre within boxes 1((-100 -100 -100) (100 100 0))
    Selected 149026/576815 cells
    - set internal values of volScalarField: alpha.water = 1
    Adding all elements of cell sets: (bgr0)
    Selected 576815/576815 cells
    - set internal values of volScalarField: zoneID = 0
    Adding all elements of cell sets: (vessel)
    Selected 531693/576815 cells
    - set internal values of volScalarField: zoneID = 1
    Adding all elements of cell sets: (pendulum)
    Selected 36900/576815 cells
    - set internal values of volScalarField: zoneID = 2

End

/*---------------------------------------------------------------------------*\
| =========                 |                                                 |
| \\      /  F ield         | OpenFOAM: The Open Source CFD Toolbox           |
|  \\    /   O peration     | Version:  2306                                  |
|   \\  /    A nd           | Website:  www.openfoam.com                      |
|    \\/     M anipulation  |                                                 |
\*---------------------------------------------------------------------------*/
Build  : _fbf00d6b-20230626 OPENFOAM=2306 version=2306
Arch   : "LSB;label=32;scalar=64"
Exec   : decomposePar -case /home/nkhadi001/OpenFOAM/nkhadi001-2306/foamMooring/tutorial/mooredrigidBodyHull/background
Date   : Aug 13 2024
Time   : 00:03:32
Host   : srvcnthpc113.uct.ac.za
PID    : 58452
I/O    : uncollated
Case   : /home/nkhadi001/OpenFOAM/nkhadi001-2306/foamMooring/tutorial/mooredrigidBodyHull/background
nProcs : 1
trapFpe: Floating point exception trapping enabled (FOAM_SIGFPE).
fileModificationChecking : Monitoring run-time modified files using timeStampMaster (fileModificationSkew 5, maxFileModificationPolls 20)
allowSystemOperations : Allowing user-supplied system call operations

// * * * * * * * * * * * * * * * * * * * * * * * * * * * * * * * * * * * * * //
Create time



Decomposing mesh

Create mesh

Calculating distribution of cells
Decomposition method hierarchical [5] (region region0)

Finished decomposition in 0.26 s

Calculating original mesh data

Distributing cells to processors

Distributing faces to processors

Distributing points to processors

Constructing processor meshes

Processor 0
    Number of cells = 115363
    Number of points = 127745
    Number of faces shared with processor 1 = 3899
    Number of processor patches = 1
    Number of processor faces = 3899
    Number of boundary faces = 16224

Processor 1
    Number of cells = 115363
    Number of points = 130363
    Number of faces shared with processor 0 = 3899
    Number of faces shared with processor 2 = 5753
    Number of processor patches = 2
    Number of processor faces = 9652
    Number of boundary faces = 11510

Processor 2
    Number of cells = 115363
    Number of points = 136466
    Number of faces shared with processor 1 = 5753
    Number of faces shared with processor 3 = 4478
    Number of processor patches = 2
    Number of processor faces = 10231
    Number of boundary faces = 12853

Processor 3
    Number of cells = 115363
    Number of points = 126970
    Number of faces shared with processor 2 = 4478
    Number of faces shared with processor 4 = 4101
    Number of processor patches = 2
    Number of processor faces = 8579
    Number of boundary faces = 8781

Processor 4
    Number of cells = 115363
    Number of points = 125611
    Number of faces shared with processor 3 = 4101
    Number of processor patches = 1
    Number of processor faces = 4101
    Number of boundary faces = 12506

Number of processor faces = 18231
Max number of cells = 115363 (0% above average 115363)
Max number of processor patches = 2 (25% above average 1.6)
Max number of faces between processors = 10231 (40.296747% above average 7292.4)

Time = 0

Processor 0: field transfer
Processor 1: field transfer
Processor 2: field transfer
Processor 3: field transfer
Processor 4: field transfer

End

/*---------------------------------------------------------------------------*\
| =========                 |                                                 |
| \\      /  F ield         | OpenFOAM: The Open Source CFD Toolbox           |
|  \\    /   O peration     | Version:  2306                                  |
|   \\  /    A nd           | Website:  www.openfoam.com                      |
|    \\/     M anipulation  |                                                 |
\*---------------------------------------------------------------------------*/
Build  : _fbf00d6b-20230626 OPENFOAM=2306 version=2306
Arch   : "LSB;label=32;scalar=64"
Exec   : reconstructPar -case /home/nkhadi001/OpenFOAM/nkhadi001-2306/foamMooring/tutorial/mooredrigidBodyHull/background -time 0
Date   : Aug 13 2024
Time   : 00:04:30
Host   : srvcnthpc113.uct.ac.za
PID    : 59507
I/O    : uncollated
Case   : /home/nkhadi001/OpenFOAM/nkhadi001-2306/foamMooring/tutorial/mooredrigidBodyHull/background
nProcs : 1
trapFpe: Floating point exception trapping enabled (FOAM_SIGFPE).
fileModificationChecking : Monitoring run-time modified files using timeStampMaster (fileModificationSkew 5, maxFileModificationPolls 20)
allowSystemOperations : Allowing user-supplied system call operations

// * * * * * * * * * * * * * * * * * * * * * * * * * * * * * * * * * * * * * //
Create time

--> FOAM Warning : 
    From int main(int, char**)
    in file reconstructPar.C at line 271
    No times selectedreconstructPar failed
